/*--------------------------------*- C++ -*----------------------------------*\ 
| =========                |                                                  |
| \      /  F ield         | OpenFOAM: The Open Source CFD Toolbox            |
|  \    /   O peration     | Version:  5                                      |
|   \  /    A nd           | Web:      www.OpenFOAM.org                       |
|    \/     M anipulation  |                                                  |
\*---------------------------------------------------------------------------*/
FoamFile
{
   version     2.0;
   format      ascii;
   class       dictionary;
   object      blockMeshDict;
}
// * * * * * * * * * * * * * * * * * * * * * * * * * * * * * * * * * * * * * //

convertToMeters 1;

vertices
(
    (-0.93 -0.5 0.05)
    (-0.43000000000000005 -0.5 0.05)
    (-0.43000000000000005 -0.5 -0.05)
    (-0.93 -0.5 -0.05)
    (-0.93 0.5 0.05)
    (-0.43000000000000005 0.5 0.05)
    (-0.43000000000000005 0.5 -0.05)
    (-0.93 0.5 -0.05)
    (0.43000000000000005 -0.5 0.05)
    (0.43000000000000005 -0.5 -0.05)
    (-0.16263455967290597 -0.16263455967290597 0.05)
    (0.16263455967290597 -0.16263455967290597 0.05)
    (0.16263455967290597 -0.16263455967290597 -0.05)
    (-0.16263455967290597 -0.16263455967290597 -0.05)
    (-0.16263455967290597 0.16263455967290597 0.05)
    (-0.16263455967290597 0.16263455967290597 -0.05)
    (0.16263455967290597 0.16263455967290597 0.05)
    (0.16263455967290597 0.16263455967290597 -0.05)
    (0.43000000000000005 0.5 0.05)
    (0.43000000000000005 0.5 -0.05)
    (5.300000000000001 -0.5 0.05)
    (5.300000000000001 -0.5 -0.05)
    (5.300000000000001 0.5 0.05)
    (5.300000000000001 0.5 -0.05)
);

blocks
(
    hex ( 0  1  2  3  4  5  6  7) (12 1 50) simpleGrading (1 1 1)
    hex ( 1  8  9  2 10 11 12 13) (43 1 21) simpleGrading (1 1 0.1)
    hex ( 1 10 13  2  5 14 15  6) (21 1 50) simpleGrading (0.1 1 1)
    hex (14 16 17 15  5 18 19  6) (43 1 21) simpleGrading (1 1 10)
    hex (11  8  9 12 16 18 19 17) (21 1 50) simpleGrading (10 1 1)
    hex ( 8 20 21  9 18 22 23 19) (97 1 50) simpleGrading (5 1 1)
);

edges
(
    spline 14 10 ((-0.17619022191736497 0.14784115022790406 0.05) (-0.1991858428704209 0.11499999999999999 0.05) (-0.21612930278075895 0.07866463296490381 0.05) (-0.22650578319280787 0.03993908086339398 0.05) (-0.2291247805611015 0.02004582083196138 0.05) (-0.23 0 0.05) (-0.2291247805611015 -0.02004582083196138 0.05) (-0.22650578319280787 -0.03993908086339398 0.05) (-0.21612930278075895 -0.07866463296490381 0.05) (-0.1991858428704209 -0.11499999999999999 0.05) (-0.17619022191736497 -0.14784115022790406 0.05))
    spline 15 13 ((-0.17619022191736497 0.14784115022790406 -0.05) (-0.1991858428704209 0.11499999999999999 -0.05) (-0.21612930278075895 0.07866463296490381 -0.05) (-0.22650578319280787 0.03993908086339398 -0.05) (-0.2291247805611015 0.02004582083196138 -0.05) (-0.23 0 -0.05) (-0.2291247805611015 -0.02004582083196138 -0.05) (-0.22650578319280787 -0.03993908086339398 -0.05) (-0.21612930278075895 -0.07866463296490381 -0.05) (-0.1991858428704209 -0.11499999999999999 -0.05) (-0.17619022191736497 -0.14784115022790406 -0.05))
    spline 16 11 ((0.17619022191736497 0.14784115022790406 0.05) (0.1991858428704209 0.11499999999999999 0.05) (0.21612930278075895 0.07866463296490381 0.05) (0.22650578319280787 0.03993908086339398 0.05) (0.2291247805611015 0.02004582083196138 0.05) (0.23 0 0.05) (0.2291247805611015 -0.02004582083196138 0.05) (0.22650578319280787 -0.03993908086339398 0.05) (0.21612930278075895 -0.07866463296490381 0.05) (0.1991858428704209 -0.11499999999999999 0.05) (0.17619022191736497 -0.14784115022790406 0.05))
    spline 17 12 ((0.17619022191736497 0.14784115022790406 -0.05) (0.1991858428704209 0.11499999999999999 -0.05) (0.21612930278075895 0.07866463296490381 -0.05) (0.22650578319280787 0.03993908086339398 -0.05) (0.2291247805611015 0.02004582083196138 -0.05) (0.23 0 -0.05) (0.2291247805611015 -0.02004582083196138 -0.05) (0.22650578319280787 -0.03993908086339398 -0.05) (0.21612930278075895 -0.07866463296490381 -0.05) (0.1991858428704209 -0.11499999999999999 -0.05) (0.17619022191736497 -0.14784115022790406 -0.05))
    arc 10 11 (0 -0.23 0.05)
    arc 12 13 (0 -0.23 -0.05)
    arc 14 16 (0 0.23 0.05)
    arc 15 17 (0 0.23 -0.05)
);

boundary
(
    inlet
    {
        type patch;
        faces
        (
            ( 0  4  7  3)
        );
    }
    outlet
    {
        type patch;
        faces
        (
		 (20 21 23 22)
        );
    }
    top
    {
        type wall;
        faces
        (
            ( 4  5  6  7)
            ( 5 18 19  6)
            (18 22 23 19)
            ( 0  1  2  3)
            ( 1  8  9  2)
            ( 8 20 21  9)
        );
    }
    obstacle
    {
        type wall;
        faces
        (
            (10 11 12 13)
            (11 16 17 12)
            (14 16 17 15)
            (10 14 15 13)
        );
    }
);

mergePatchPairs
(
);

// ************************************************************************* //
